V1 vcc 0 DC 5
L1 vcc sw 100m
Rcoil vcc sw 70
M1 sw gate 0 0 NMOS
Vgate gate 0 PULSE(0 5 1m 10n 10n 10m 20m)
D1 sw vcc D4148
.model D4148 D
.model NMOS NMOS
.tran 10u 50m
.end
